Circuit: * C:\Users\alist\OneDrive\Electrickery\Phased-Array-Radio-Telescope\Phased-Array-WiFi-Camera\Models and Simulations\Electrical Modelling\VCM switch.asc

Direct Newton iteration for .op point succeeded.

Date: Tue Dec 11 21:17:52 2018
Total elapsed time: 0.064 seconds.

tnom = 27
temp = 27
method = modified trap
totiter = 16017
traniter = 16014
tranpoints = 8008
accept = 5209
rejected = 2799
matrix size = 10
fillins = 0
solver = Normal
Matrix Compiler1: 346 bytes object code size  0.1/0.1/[0.1]
Matrix Compiler2: off  [0.1]/0.1/0.1


